cimhub_docker/master_base.dss
clear
new Circuit.source phases=3 bus1=n650 basekv=4.160 pu=1.00000 angle=30.00000 r0=0.00024 x0=0.00071 r1=0.00021 x1=0.00084





new Linecode.1p_ug_code4 nphases=1 units=mi rmatrix=[0.405140 ] xmatrix=[0.410718 ] cmatrix=[3.65371 ]
new Linecode.2p_code10 nphases=2 units=mi rmatrix=[0.139476 | 0.0467868 0.140665 ] xmatrix=[0.328574 | 0.117318 0.324642 ] cmatrix=[4.13564 | -0.852854 4.18011 ]
new Linecode.2p_oh_code0 nphases=2 units=mi rmatrix=[0.139476 | 0.0467868 0.140665 ] xmatrix=[0.328574 | 0.117318 0.324642 ] cmatrix=[4.13564 | -0.852854 4.18011 ]
new Linecode.3p_code7 nphases=3 units=mi rmatrix=[0.139476 | 0.0475488 0.142220 | 0.0467868 0.0481584 0.140665 ] xmatrix=[0.328574 | 0.152918 0.319491 | 0.117318 0.129113 0.324642 ] cmatrix=[4.58927 | -1.48103 4.83537 | -0.564473 -0.941462 4.36339 ]
new Linecode.3p_oh_code6 nphases=3 units=mi rmatrix=[0.139476 | 0.0475488 0.142220 | 0.0467868 0.0481584 0.140665 ] xmatrix=[0.328574 | 0.152918 0.319491 | 0.117318 0.129113 0.324642 ] cmatrix=[4.58927 | -1.48103 4.83537 | -0.564473 -0.941462 4.36339 ]
new Linecode.3p_oh_code1 nphases=3 units=mi rmatrix=[0.139476 | 0.0475488 0.142220 | 0.0467868 0.0481584 0.140665 ] xmatrix=[0.328574 | 0.152918 0.319491 | 0.117318 0.129113 0.324642 ] cmatrix=[4.58927 | -1.48103 4.83537 | -0.564473 -0.941462 4.36339 ]
new Linecode.3p_ug_code5 nphases=3 units=mi rmatrix=[0.139476 | 0.0475488 0.142220 | 0.0467868 0.0481584 0.140665 ] xmatrix=[0.328574 | 0.152918 0.319491 | 0.117318 0.129113 0.324642 ] cmatrix=[4.58927 | -1.48103 4.83537 | -0.564473 -0.941462 4.36339 ]
new Linecode.1p_oh_code3 nphases=1 units=mi rmatrix=[0.405140 ] xmatrix=[0.410718 ] cmatrix=[3.65371 ]
new Linecode.1p_oh_code9 nphases=1 units=mi rmatrix=[0.405140 ] xmatrix=[0.410718 ] cmatrix=[3.65371 ]
new Linecode.1p_oh_code8 nphases=1 units=mi rmatrix=[0.405140 ] xmatrix=[0.410718 ] cmatrix=[3.65371 ]
new Linecode.2p_oh_code2 nphases=2 units=mi rmatrix=[0.139476 | 0.0467868 0.140665 ] xmatrix=[0.328574 | 0.117318 0.324642 ] cmatrix=[4.13564 | -0.852854 4.18011 ]


new Xfmrcode.cimxfmrcode_xfmr_611_c_2 windings=3 phases=1 xhl=2.040000 xht=2.040000 xlt=0.136000 %imag=0.000 %noloadloss=0.000
~ wdg=1 conn=w kv=2.400 kva=10000.0 %r=0.003000
~ wdg=2 conn=w kv=0.120 kva=1000.0 %r=0.000600
~ wdg=3 conn=w kv=0.120 kva=1000.0 %r=0.000600
new Xfmrcode.cimxfmrcode_xfmr_684_c_2 windings=3 phases=1 xhl=2.040000 xht=2.040000 xlt=0.136000 %imag=0.000 %noloadloss=0.000
~ wdg=1 conn=w kv=2.400 kva=10000.0 %r=0.003000
~ wdg=2 conn=w kv=0.120 kva=1000.0 %r=0.000600
~ wdg=3 conn=w kv=0.120 kva=1000.0 %r=0.000600
new Xfmrcode.cimxfmrcode_xfmr_611_c_1 windings=3 phases=1 xhl=2.040000 xht=2.040000 xlt=0.136000 %imag=0.000 %noloadloss=0.000
~ wdg=1 conn=w kv=2.400 kva=10000.0 %r=0.003000
~ wdg=2 conn=w kv=0.120 kva=1000.0 %r=0.000600
~ wdg=3 conn=w kv=0.120 kva=1000.0 %r=0.000600
new Xfmrcode.cimxfmrcode_xfmr_684_c_1 windings=3 phases=1 xhl=2.040000 xht=2.040000 xlt=0.136000 %imag=0.000 %noloadloss=0.000
~ wdg=1 conn=w kv=2.400 kva=10000.0 %r=0.003000
~ wdg=2 conn=w kv=0.120 kva=1000.0 %r=0.000600
~ wdg=3 conn=w kv=0.120 kva=1000.0 %r=0.000600
new Xfmrcode.cimxfmrcode_xfmr_611_c_4 windings=3 phases=1 xhl=2.040000 xht=2.040000 xlt=0.136000 %imag=0.000 %noloadloss=0.000
~ wdg=1 conn=w kv=2.400 kva=10000.0 %r=0.003000
~ wdg=2 conn=w kv=0.120 kva=1000.0 %r=0.000600
~ wdg=3 conn=w kv=0.120 kva=1000.0 %r=0.000600
new Xfmrcode.cimxfmrcode_xfmr_671_a_5 windings=3 phases=1 xhl=2.040000 xht=2.040000 xlt=0.136000 %imag=0.000 %noloadloss=0.000
~ wdg=1 conn=w kv=2.400 kva=10000.0 %r=0.003000
~ wdg=2 conn=w kv=0.120 kva=1000.0 %r=0.000600
~ wdg=3 conn=w kv=0.120 kva=1000.0 %r=0.000600
new Xfmrcode.cimxfmrcode_xfmr_684_c_4 windings=3 phases=1 xhl=2.040000 xht=2.040000 xlt=0.136000 %imag=0.000 %noloadloss=0.000
~ wdg=1 conn=w kv=2.400 kva=10000.0 %r=0.003000
~ wdg=2 conn=w kv=0.120 kva=1000.0 %r=0.000600
~ wdg=3 conn=w kv=0.120 kva=1000.0 %r=0.000600
new Xfmrcode.cimxfmrcode_xfmr_611_c_3 windings=3 phases=1 xhl=2.040000 xht=2.040000 xlt=0.136000 %imag=0.000 %noloadloss=0.000
~ wdg=1 conn=w kv=2.400 kva=10000.0 %r=0.003000
~ wdg=2 conn=w kv=0.120 kva=1000.0 %r=0.000600
~ wdg=3 conn=w kv=0.120 kva=1000.0 %r=0.000600
new Xfmrcode.cimxfmrcode_xfmr_684_c_3 windings=3 phases=1 xhl=2.040000 xht=2.040000 xlt=0.136000 %imag=0.000 %noloadloss=0.000
~ wdg=1 conn=w kv=2.400 kva=10000.0 %r=0.003000
~ wdg=2 conn=w kv=0.120 kva=1000.0 %r=0.000600
~ wdg=3 conn=w kv=0.120 kva=1000.0 %r=0.000600
new Xfmrcode.cimxfmrcode_xfmr_633_b_4 windings=3 phases=1 xhl=2.040000 xht=2.040000 xlt=0.136000 %imag=0.000 %noloadloss=0.000
~ wdg=1 conn=w kv=2.400 kva=10000.0 %r=0.003000
~ wdg=2 conn=w kv=0.120 kva=1000.0 %r=0.000600
~ wdg=3 conn=w kv=0.120 kva=1000.0 %r=0.000600
new Xfmrcode.cimxfmrcode_xfmr_671_a_3 windings=3 phases=1 xhl=2.040000 xht=2.040000 xlt=0.136000 %imag=0.000 %noloadloss=0.000
~ wdg=1 conn=w kv=2.400 kva=10000.0 %r=0.003000
~ wdg=2 conn=w kv=0.120 kva=1000.0 %r=0.000600
~ wdg=3 conn=w kv=0.120 kva=1000.0 %r=0.000600
new Xfmrcode.cimxfmrcode_xfmr_611_c_5 windings=3 phases=1 xhl=2.040000 xht=2.040000 xlt=0.136000 %imag=0.000 %noloadloss=0.000
~ wdg=1 conn=w kv=2.400 kva=10000.0 %r=0.003000
~ wdg=2 conn=w kv=0.120 kva=1000.0 %r=0.000600
~ wdg=3 conn=w kv=0.120 kva=1000.0 %r=0.000600
new Xfmrcode.cimxfmrcode_xfmr_633_b_5 windings=3 phases=1 xhl=2.040000 xht=2.040000 xlt=0.136000 %imag=0.000 %noloadloss=0.000
~ wdg=1 conn=w kv=2.400 kva=10000.0 %r=0.003000
~ wdg=2 conn=w kv=0.120 kva=1000.0 %r=0.000600
~ wdg=3 conn=w kv=0.120 kva=1000.0 %r=0.000600
new Xfmrcode.cimxfmrcode_xfmr_671_a_4 windings=3 phases=1 xhl=2.040000 xht=2.040000 xlt=0.136000 %imag=0.000 %noloadloss=0.000
~ wdg=1 conn=w kv=2.400 kva=10000.0 %r=0.003000
~ wdg=2 conn=w kv=0.120 kva=1000.0 %r=0.000600
~ wdg=3 conn=w kv=0.120 kva=1000.0 %r=0.000600
new Xfmrcode.cimxfmrcode_xfmr_633_b_2 windings=3 phases=1 xhl=2.040000 xht=2.040000 xlt=0.136000 %imag=0.000 %noloadloss=0.000
~ wdg=1 conn=w kv=2.400 kva=10000.0 %r=0.003000
~ wdg=2 conn=w kv=0.120 kva=1000.0 %r=0.000600
~ wdg=3 conn=w kv=0.120 kva=1000.0 %r=0.000600
new Xfmrcode.cimxfmrcode_xfmr_671_a_1 windings=3 phases=1 xhl=2.040000 xht=2.040000 xlt=0.136000 %imag=0.000 %noloadloss=0.000
~ wdg=1 conn=w kv=2.400 kva=10000.0 %r=0.003000
~ wdg=2 conn=w kv=0.120 kva=1000.0 %r=0.000600
~ wdg=3 conn=w kv=0.120 kva=1000.0 %r=0.000600
new Xfmrcode.cimxfmrcode_xfmr_633_b_3 windings=3 phases=1 xhl=2.040000 xht=2.040000 xlt=0.136000 %imag=0.000 %noloadloss=0.000
~ wdg=1 conn=w kv=2.400 kva=10000.0 %r=0.003000
~ wdg=2 conn=w kv=0.120 kva=1000.0 %r=0.000600
~ wdg=3 conn=w kv=0.120 kva=1000.0 %r=0.000600
new Xfmrcode.cimxfmrcode_xfmr_671_a_2 windings=3 phases=1 xhl=2.040000 xht=2.040000 xlt=0.136000 %imag=0.000 %noloadloss=0.000
~ wdg=1 conn=w kv=2.400 kva=10000.0 %r=0.003000
~ wdg=2 conn=w kv=0.120 kva=1000.0 %r=0.000600
~ wdg=3 conn=w kv=0.120 kva=1000.0 %r=0.000600
new Xfmrcode.cimxfmrcode_xfmr_633_b_1 windings=3 phases=1 xhl=2.040000 xht=2.040000 xlt=0.136000 %imag=0.000 %noloadloss=0.000
~ wdg=1 conn=w kv=2.400 kva=10000.0 %r=0.003000
~ wdg=2 conn=w kv=0.120 kva=1000.0 %r=0.000600
~ wdg=3 conn=w kv=0.120 kva=1000.0 %r=0.000600
new Xfmrcode.cimxfmrcode_xfmr_684_c_5 windings=3 phases=1 xhl=2.040000 xht=2.040000 xlt=0.136000 %imag=0.000 %noloadloss=0.000
~ wdg=1 conn=w kv=2.400 kva=10000.0 %r=0.003000
~ wdg=2 conn=w kv=0.120 kva=1000.0 %r=0.000600
~ wdg=3 conn=w kv=0.120 kva=1000.0 %r=0.000600
new Xfmrcode.cimxfmrcode_xfmr_645_b_5 windings=3 phases=1 xhl=2.040000 xht=2.040000 xlt=0.136000 %imag=0.000 %noloadloss=0.000
~ wdg=1 conn=w kv=2.400 kva=10000.0 %r=0.003000
~ wdg=2 conn=w kv=0.120 kva=1000.0 %r=0.000600
~ wdg=3 conn=w kv=0.120 kva=1000.0 %r=0.000600
new Xfmrcode.cimxfmrcode_xfmr_645_b_4 windings=3 phases=1 xhl=2.040000 xht=2.040000 xlt=0.136000 %imag=0.000 %noloadloss=0.000
~ wdg=1 conn=w kv=2.400 kva=10000.0 %r=0.003000
~ wdg=2 conn=w kv=0.120 kva=1000.0 %r=0.000600
~ wdg=3 conn=w kv=0.120 kva=1000.0 %r=0.000600
new Xfmrcode.cimxfmrcode_xfmr_645_b_3 windings=3 phases=1 xhl=2.040000 xht=2.040000 xlt=0.136000 %imag=0.000 %noloadloss=0.000
~ wdg=1 conn=w kv=2.400 kva=10000.0 %r=0.003000
~ wdg=2 conn=w kv=0.120 kva=1000.0 %r=0.000600
~ wdg=3 conn=w kv=0.120 kva=1000.0 %r=0.000600
new Xfmrcode.cimxfmrcode_xfmr_645_b_2 windings=3 phases=1 xhl=2.040000 xht=2.040000 xlt=0.136000 %imag=0.000 %noloadloss=0.000
~ wdg=1 conn=w kv=2.400 kva=10000.0 %r=0.003000
~ wdg=2 conn=w kv=0.120 kva=1000.0 %r=0.000600
~ wdg=3 conn=w kv=0.120 kva=1000.0 %r=0.000600
new Xfmrcode.cimxfmrcode_xfmr_645_b_1 windings=3 phases=1 xhl=2.040000 xht=2.040000 xlt=0.136000 %imag=0.000 %noloadloss=0.000
~ wdg=1 conn=w kv=2.400 kva=10000.0 %r=0.003000
~ wdg=2 conn=w kv=0.120 kva=1000.0 %r=0.000600
~ wdg=3 conn=w kv=0.120 kva=1000.0 %r=0.000600
new Xfmrcode.cimxfmrcode_xfmr_692_b_5 windings=3 phases=1 xhl=2.040000 xht=2.040000 xlt=0.136000 %imag=0.000 %noloadloss=0.000
~ wdg=1 conn=w kv=2.400 kva=10000.0 %r=0.003000
~ wdg=2 conn=w kv=0.120 kva=1000.0 %r=0.000600
~ wdg=3 conn=w kv=0.120 kva=1000.0 %r=0.000600
new Xfmrcode.cimxfmrcode_xfmr_692_b_2 windings=3 phases=1 xhl=2.040000 xht=2.040000 xlt=0.136000 %imag=0.000 %noloadloss=0.000
~ wdg=1 conn=w kv=2.400 kva=10000.0 %r=0.003000
~ wdg=2 conn=w kv=0.120 kva=1000.0 %r=0.000600
~ wdg=3 conn=w kv=0.120 kva=1000.0 %r=0.000600
new Xfmrcode.cimxfmrcode_xfmr_692_b_1 windings=3 phases=1 xhl=2.040000 xht=2.040000 xlt=0.136000 %imag=0.000 %noloadloss=0.000
~ wdg=1 conn=w kv=2.400 kva=10000.0 %r=0.003000
~ wdg=2 conn=w kv=0.120 kva=1000.0 %r=0.000600
~ wdg=3 conn=w kv=0.120 kva=1000.0 %r=0.000600
new Xfmrcode.cimxfmrcode_xfmr_692_b_4 windings=3 phases=1 xhl=2.040000 xht=2.040000 xlt=0.136000 %imag=0.000 %noloadloss=0.000
~ wdg=1 conn=w kv=2.400 kva=10000.0 %r=0.003000
~ wdg=2 conn=w kv=0.120 kva=1000.0 %r=0.000600
~ wdg=3 conn=w kv=0.120 kva=1000.0 %r=0.000600
new Xfmrcode.cimxfmrcode_xfmr_692_b_3 windings=3 phases=1 xhl=2.040000 xht=2.040000 xlt=0.136000 %imag=0.000 %noloadloss=0.000
~ wdg=1 conn=w kv=2.400 kva=10000.0 %r=0.003000
~ wdg=2 conn=w kv=0.120 kva=1000.0 %r=0.000600
~ wdg=3 conn=w kv=0.120 kva=1000.0 %r=0.000600
new Xfmrcode.cimxfmrcode_xfmr_652_a_1 windings=3 phases=1 xhl=2.040000 xht=2.040000 xlt=0.136000 %imag=0.000 %noloadloss=0.000
~ wdg=1 conn=w kv=2.400 kva=10000.0 %r=0.003000
~ wdg=2 conn=w kv=0.120 kva=1000.0 %r=0.000600
~ wdg=3 conn=w kv=0.120 kva=1000.0 %r=0.000600
new Xfmrcode.cimxfmrcode_xfmr_652_a_4 windings=3 phases=1 xhl=2.040000 xht=2.040000 xlt=0.136000 %imag=0.000 %noloadloss=0.000
~ wdg=1 conn=w kv=2.400 kva=10000.0 %r=0.003000
~ wdg=2 conn=w kv=0.120 kva=1000.0 %r=0.000600
~ wdg=3 conn=w kv=0.120 kva=1000.0 %r=0.000600
new Xfmrcode.cimxfmrcode_xfmr_652_a_5 windings=3 phases=1 xhl=2.040000 xht=2.040000 xlt=0.136000 %imag=0.000 %noloadloss=0.000
~ wdg=1 conn=w kv=2.400 kva=10000.0 %r=0.003000
~ wdg=2 conn=w kv=0.120 kva=1000.0 %r=0.000600
~ wdg=3 conn=w kv=0.120 kva=1000.0 %r=0.000600
new Xfmrcode.cimxfmrcode_xfmr_652_a_2 windings=3 phases=1 xhl=2.040000 xht=2.040000 xlt=0.136000 %imag=0.000 %noloadloss=0.000
~ wdg=1 conn=w kv=2.400 kva=10000.0 %r=0.003000
~ wdg=2 conn=w kv=0.120 kva=1000.0 %r=0.000600
~ wdg=3 conn=w kv=0.120 kva=1000.0 %r=0.000600
new Xfmrcode.cimxfmrcode_xfmr_652_a_3 windings=3 phases=1 xhl=2.040000 xht=2.040000 xlt=0.136000 %imag=0.000 %noloadloss=0.000
~ wdg=1 conn=w kv=2.400 kva=10000.0 %r=0.003000
~ wdg=2 conn=w kv=0.120 kva=1000.0 %r=0.000600
~ wdg=3 conn=w kv=0.120 kva=1000.0 %r=0.000600
new Xfmrcode.cimxfmrcode_xfmr_671_b_4 windings=3 phases=1 xhl=2.040000 xht=2.040000 xlt=0.136000 %imag=0.000 %noloadloss=0.000
~ wdg=1 conn=w kv=2.400 kva=10000.0 %r=0.003000
~ wdg=2 conn=w kv=0.120 kva=1000.0 %r=0.000600
~ wdg=3 conn=w kv=0.120 kva=1000.0 %r=0.000600
new Xfmrcode.cimxfmrcode_xfmr_671_b_5 windings=3 phases=1 xhl=2.040000 xht=2.040000 xlt=0.136000 %imag=0.000 %noloadloss=0.000
~ wdg=1 conn=w kv=2.400 kva=10000.0 %r=0.003000
~ wdg=2 conn=w kv=0.120 kva=1000.0 %r=0.000600
~ wdg=3 conn=w kv=0.120 kva=1000.0 %r=0.000600
new Xfmrcode.cimxfmrcode_xfmr_633_a_5 windings=3 phases=1 xhl=2.040000 xht=2.040000 xlt=0.136000 %imag=0.000 %noloadloss=0.000
~ wdg=1 conn=w kv=2.400 kva=10000.0 %r=0.003000
~ wdg=2 conn=w kv=0.120 kva=1000.0 %r=0.000600
~ wdg=3 conn=w kv=0.120 kva=1000.0 %r=0.000600
new Xfmrcode.cimxfmrcode_xfmr_671_b_2 windings=3 phases=1 xhl=2.040000 xht=2.040000 xlt=0.136000 %imag=0.000 %noloadloss=0.000
~ wdg=1 conn=w kv=2.400 kva=10000.0 %r=0.003000
~ wdg=2 conn=w kv=0.120 kva=1000.0 %r=0.000600
~ wdg=3 conn=w kv=0.120 kva=1000.0 %r=0.000600
new Xfmrcode.cimxfmrcode_xfmr_671_b_3 windings=3 phases=1 xhl=2.040000 xht=2.040000 xlt=0.136000 %imag=0.000 %noloadloss=0.000
~ wdg=1 conn=w kv=2.400 kva=10000.0 %r=0.003000
~ wdg=2 conn=w kv=0.120 kva=1000.0 %r=0.000600
~ wdg=3 conn=w kv=0.120 kva=1000.0 %r=0.000600
new Xfmrcode.cimxfmrcode_xfmr_633_a_3 windings=3 phases=1 xhl=2.040000 xht=2.040000 xlt=0.136000 %imag=0.000 %noloadloss=0.000
~ wdg=1 conn=w kv=2.400 kva=10000.0 %r=0.003000
~ wdg=2 conn=w kv=0.120 kva=1000.0 %r=0.000600
~ wdg=3 conn=w kv=0.120 kva=1000.0 %r=0.000600
new Xfmrcode.cimxfmrcode_xfmr_632_c_1 windings=3 phases=1 xhl=2.040000 xht=2.040000 xlt=0.136000 %imag=0.000 %noloadloss=0.000
~ wdg=1 conn=w kv=2.400 kva=10000.0 %r=0.003000
~ wdg=2 conn=w kv=0.120 kva=1000.0 %r=0.000600
~ wdg=3 conn=w kv=0.120 kva=1000.0 %r=0.000600
new Xfmrcode.cimxfmrcode_xfmr_633_a_4 windings=3 phases=1 xhl=2.040000 xht=2.040000 xlt=0.136000 %imag=0.000 %noloadloss=0.000
~ wdg=1 conn=w kv=2.400 kva=10000.0 %r=0.003000
~ wdg=2 conn=w kv=0.120 kva=1000.0 %r=0.000600
~ wdg=3 conn=w kv=0.120 kva=1000.0 %r=0.000600
new Xfmrcode.cimxfmrcode_xfmr_671_b_1 windings=3 phases=1 xhl=2.040000 xht=2.040000 xlt=0.136000 %imag=0.000 %noloadloss=0.000
~ wdg=1 conn=w kv=2.400 kva=10000.0 %r=0.003000
~ wdg=2 conn=w kv=0.120 kva=1000.0 %r=0.000600
~ wdg=3 conn=w kv=0.120 kva=1000.0 %r=0.000600
new Xfmrcode.cimxfmrcode_xfmr_632_c_2 windings=3 phases=1 xhl=2.040000 xht=2.040000 xlt=0.136000 %imag=0.000 %noloadloss=0.000
~ wdg=1 conn=w kv=2.400 kva=10000.0 %r=0.003000
~ wdg=2 conn=w kv=0.120 kva=1000.0 %r=0.000600
~ wdg=3 conn=w kv=0.120 kva=1000.0 %r=0.000600
new Xfmrcode.cimxfmrcode_xfmr_633_a_1 windings=3 phases=1 xhl=2.040000 xht=2.040000 xlt=0.136000 %imag=0.000 %noloadloss=0.000
~ wdg=1 conn=w kv=2.400 kva=10000.0 %r=0.003000
~ wdg=2 conn=w kv=0.120 kva=1000.0 %r=0.000600
~ wdg=3 conn=w kv=0.120 kva=1000.0 %r=0.000600
new Xfmrcode.cimxfmrcode_xfmr_632_c_3 windings=3 phases=1 xhl=2.040000 xht=2.040000 xlt=0.136000 %imag=0.000 %noloadloss=0.000
~ wdg=1 conn=w kv=2.400 kva=10000.0 %r=0.003000
~ wdg=2 conn=w kv=0.120 kva=1000.0 %r=0.000600
~ wdg=3 conn=w kv=0.120 kva=1000.0 %r=0.000600
new Xfmrcode.cimxfmrcode_xfmr_633_a_2 windings=3 phases=1 xhl=2.040000 xht=2.040000 xlt=0.136000 %imag=0.000 %noloadloss=0.000
~ wdg=1 conn=w kv=2.400 kva=10000.0 %r=0.003000
~ wdg=2 conn=w kv=0.120 kva=1000.0 %r=0.000600
~ wdg=3 conn=w kv=0.120 kva=1000.0 %r=0.000600
new Xfmrcode.cimxfmrcode_xfmr_632_c_4 windings=3 phases=1 xhl=2.040000 xht=2.040000 xlt=0.136000 %imag=0.000 %noloadloss=0.000
~ wdg=1 conn=w kv=2.400 kva=10000.0 %r=0.003000
~ wdg=2 conn=w kv=0.120 kva=1000.0 %r=0.000600
~ wdg=3 conn=w kv=0.120 kva=1000.0 %r=0.000600
new Xfmrcode.cimxfmrcode_xfmr_632_c_5 windings=3 phases=1 xhl=2.040000 xht=2.040000 xlt=0.136000 %imag=0.000 %noloadloss=0.000
~ wdg=1 conn=w kv=2.400 kva=10000.0 %r=0.003000
~ wdg=2 conn=w kv=0.120 kva=1000.0 %r=0.000600
~ wdg=3 conn=w kv=0.120 kva=1000.0 %r=0.000600
new Xfmrcode.cimxfmrcode_xfmr_680_a_3 windings=3 phases=1 xhl=2.040000 xht=2.040000 xlt=0.136000 %imag=0.000 %noloadloss=0.000
~ wdg=1 conn=w kv=2.400 kva=10000.0 %r=0.003000
~ wdg=2 conn=w kv=0.120 kva=1000.0 %r=0.000600
~ wdg=3 conn=w kv=0.120 kva=1000.0 %r=0.000600
new Xfmrcode.cimxfmrcode_xfmr_680_a_4 windings=3 phases=1 xhl=2.040000 xht=2.040000 xlt=0.136000 %imag=0.000 %noloadloss=0.000
~ wdg=1 conn=w kv=2.400 kva=10000.0 %r=0.003000
~ wdg=2 conn=w kv=0.120 kva=1000.0 %r=0.000600
~ wdg=3 conn=w kv=0.120 kva=1000.0 %r=0.000600
new Xfmrcode.cimxfmrcode_xfmr_680_a_5 windings=3 phases=1 xhl=2.040000 xht=2.040000 xlt=0.136000 %imag=0.000 %noloadloss=0.000
~ wdg=1 conn=w kv=2.400 kva=10000.0 %r=0.003000
~ wdg=2 conn=w kv=0.120 kva=1000.0 %r=0.000600
~ wdg=3 conn=w kv=0.120 kva=1000.0 %r=0.000600
new Xfmrcode.cimxfmrcode_xfmr_645_c_5 windings=3 phases=1 xhl=2.040000 xht=2.040000 xlt=0.136000 %imag=0.000 %noloadloss=0.000
~ wdg=1 conn=w kv=2.400 kva=10000.0 %r=0.003000
~ wdg=2 conn=w kv=0.120 kva=1000.0 %r=0.000600
~ wdg=3 conn=w kv=0.120 kva=1000.0 %r=0.000600
new Xfmrcode.cimxfmrcode_xfmr_680_a_1 windings=3 phases=1 xhl=2.040000 xht=2.040000 xlt=0.136000 %imag=0.000 %noloadloss=0.000
~ wdg=1 conn=w kv=2.400 kva=10000.0 %r=0.003000
~ wdg=2 conn=w kv=0.120 kva=1000.0 %r=0.000600
~ wdg=3 conn=w kv=0.120 kva=1000.0 %r=0.000600
new Xfmrcode.cimxfmrcode_xfmr_645_c_4 windings=3 phases=1 xhl=2.040000 xht=2.040000 xlt=0.136000 %imag=0.000 %noloadloss=0.000
~ wdg=1 conn=w kv=2.400 kva=10000.0 %r=0.003000
~ wdg=2 conn=w kv=0.120 kva=1000.0 %r=0.000600
~ wdg=3 conn=w kv=0.120 kva=1000.0 %r=0.000600
new Xfmrcode.cimxfmrcode_xfmr_680_a_2 windings=3 phases=1 xhl=2.040000 xht=2.040000 xlt=0.136000 %imag=0.000 %noloadloss=0.000
~ wdg=1 conn=w kv=2.400 kva=10000.0 %r=0.003000
~ wdg=2 conn=w kv=0.120 kva=1000.0 %r=0.000600
~ wdg=3 conn=w kv=0.120 kva=1000.0 %r=0.000600
new Xfmrcode.cimxfmrcode_xfmr_645_c_3 windings=3 phases=1 xhl=2.040000 xht=2.040000 xlt=0.136000 %imag=0.000 %noloadloss=0.000
~ wdg=1 conn=w kv=2.400 kva=10000.0 %r=0.003000
~ wdg=2 conn=w kv=0.120 kva=1000.0 %r=0.000600
~ wdg=3 conn=w kv=0.120 kva=1000.0 %r=0.000600
new Xfmrcode.cimxfmrcode_xfmr_675_c_5 windings=3 phases=1 xhl=2.040000 xht=2.040000 xlt=0.136000 %imag=0.000 %noloadloss=0.000
~ wdg=1 conn=w kv=2.400 kva=10000.0 %r=0.003000
~ wdg=2 conn=w kv=0.120 kva=1000.0 %r=0.000600
~ wdg=3 conn=w kv=0.120 kva=1000.0 %r=0.000600
new Xfmrcode.cimxfmrcode_xfmr_645_c_2 windings=3 phases=1 xhl=2.040000 xht=2.040000 xlt=0.136000 %imag=0.000 %noloadloss=0.000
~ wdg=1 conn=w kv=2.400 kva=10000.0 %r=0.003000
~ wdg=2 conn=w kv=0.120 kva=1000.0 %r=0.000600
~ wdg=3 conn=w kv=0.120 kva=1000.0 %r=0.000600
new Xfmrcode.cimxfmrcode_xfmr_645_c_1 windings=3 phases=1 xhl=2.040000 xht=2.040000 xlt=0.136000 %imag=0.000 %noloadloss=0.000
~ wdg=1 conn=w kv=2.400 kva=10000.0 %r=0.003000
~ wdg=2 conn=w kv=0.120 kva=1000.0 %r=0.000600
~ wdg=3 conn=w kv=0.120 kva=1000.0 %r=0.000600
new Xfmrcode.cimxfmrcode_xfmr_675_c_3 windings=3 phases=1 xhl=2.040000 xht=2.040000 xlt=0.136000 %imag=0.000 %noloadloss=0.000
~ wdg=1 conn=w kv=2.400 kva=10000.0 %r=0.003000
~ wdg=2 conn=w kv=0.120 kva=1000.0 %r=0.000600
~ wdg=3 conn=w kv=0.120 kva=1000.0 %r=0.000600
new Xfmrcode.cimxfmrcode_xfmr_675_c_4 windings=3 phases=1 xhl=2.040000 xht=2.040000 xlt=0.136000 %imag=0.000 %noloadloss=0.000
~ wdg=1 conn=w kv=2.400 kva=10000.0 %r=0.003000
~ wdg=2 conn=w kv=0.120 kva=1000.0 %r=0.000600
~ wdg=3 conn=w kv=0.120 kva=1000.0 %r=0.000600
new Xfmrcode.cimxfmrcode_xfmr_675_c_1 windings=3 phases=1 xhl=2.040000 xht=2.040000 xlt=0.136000 %imag=0.000 %noloadloss=0.000
~ wdg=1 conn=w kv=2.400 kva=10000.0 %r=0.003000
~ wdg=2 conn=w kv=0.120 kva=1000.0 %r=0.000600
~ wdg=3 conn=w kv=0.120 kva=1000.0 %r=0.000600
new Xfmrcode.cimxfmrcode_xfmr_692_c_5 windings=3 phases=1 xhl=2.040000 xht=2.040000 xlt=0.136000 %imag=0.000 %noloadloss=0.000
~ wdg=1 conn=w kv=2.400 kva=10000.0 %r=0.003000
~ wdg=2 conn=w kv=0.120 kva=1000.0 %r=0.000600
~ wdg=3 conn=w kv=0.120 kva=1000.0 %r=0.000600
new Xfmrcode.cimxfmrcode_xfmr_675_c_2 windings=3 phases=1 xhl=2.040000 xht=2.040000 xlt=0.136000 %imag=0.000 %noloadloss=0.000
~ wdg=1 conn=w kv=2.400 kva=10000.0 %r=0.003000
~ wdg=2 conn=w kv=0.120 kva=1000.0 %r=0.000600
~ wdg=3 conn=w kv=0.120 kva=1000.0 %r=0.000600
new Xfmrcode.cimxfmrcode_xfmr_692_c_4 windings=3 phases=1 xhl=2.040000 xht=2.040000 xlt=0.136000 %imag=0.000 %noloadloss=0.000
~ wdg=1 conn=w kv=2.400 kva=10000.0 %r=0.003000
~ wdg=2 conn=w kv=0.120 kva=1000.0 %r=0.000600
~ wdg=3 conn=w kv=0.120 kva=1000.0 %r=0.000600
new Xfmrcode.cimxfmrcode_xfmr_692_c_1 windings=3 phases=1 xhl=2.040000 xht=2.040000 xlt=0.136000 %imag=0.000 %noloadloss=0.000
~ wdg=1 conn=w kv=2.400 kva=10000.0 %r=0.003000
~ wdg=2 conn=w kv=0.120 kva=1000.0 %r=0.000600
~ wdg=3 conn=w kv=0.120 kva=1000.0 %r=0.000600
new Xfmrcode.cimxfmrcode_xfmr_692_c_3 windings=3 phases=1 xhl=2.040000 xht=2.040000 xlt=0.136000 %imag=0.000 %noloadloss=0.000
~ wdg=1 conn=w kv=2.400 kva=10000.0 %r=0.003000
~ wdg=2 conn=w kv=0.120 kva=1000.0 %r=0.000600
~ wdg=3 conn=w kv=0.120 kva=1000.0 %r=0.000600
new Xfmrcode.cimxfmrcode_xfmr_692_c_2 windings=3 phases=1 xhl=2.040000 xht=2.040000 xlt=0.136000 %imag=0.000 %noloadloss=0.000
~ wdg=1 conn=w kv=2.400 kva=10000.0 %r=0.003000
~ wdg=2 conn=w kv=0.120 kva=1000.0 %r=0.000600
~ wdg=3 conn=w kv=0.120 kva=1000.0 %r=0.000600
new Xfmrcode.cimxfmrcode_xfmr_671_c_5 windings=3 phases=1 xhl=2.040000 xht=2.040000 xlt=0.136000 %imag=0.000 %noloadloss=0.000
~ wdg=1 conn=w kv=2.400 kva=10000.0 %r=0.003000
~ wdg=2 conn=w kv=0.120 kva=1000.0 %r=0.000600
~ wdg=3 conn=w kv=0.120 kva=1000.0 %r=0.000600
new Xfmrcode.cimxfmrcode_xfmr_684_a_4 windings=3 phases=1 xhl=2.040000 xht=2.040000 xlt=0.136000 %imag=0.000 %noloadloss=0.000
~ wdg=1 conn=w kv=2.400 kva=10000.0 %r=0.003000
~ wdg=2 conn=w kv=0.120 kva=1000.0 %r=0.000600
~ wdg=3 conn=w kv=0.120 kva=1000.0 %r=0.000600
new Xfmrcode.cimxfmrcode_xfmr_684_a_3 windings=3 phases=1 xhl=2.040000 xht=2.040000 xlt=0.136000 %imag=0.000 %noloadloss=0.000
~ wdg=1 conn=w kv=2.400 kva=10000.0 %r=0.003000
~ wdg=2 conn=w kv=0.120 kva=1000.0 %r=0.000600
~ wdg=3 conn=w kv=0.120 kva=1000.0 %r=0.000600
new Xfmrcode.cimxfmrcode_xfmr_671_c_3 windings=3 phases=1 xhl=2.040000 xht=2.040000 xlt=0.136000 %imag=0.000 %noloadloss=0.000
~ wdg=1 conn=w kv=2.400 kva=10000.0 %r=0.003000
~ wdg=2 conn=w kv=0.120 kva=1000.0 %r=0.000600
~ wdg=3 conn=w kv=0.120 kva=1000.0 %r=0.000600
new Xfmrcode.cimxfmrcode_xfmr_671_c_4 windings=3 phases=1 xhl=2.040000 xht=2.040000 xlt=0.136000 %imag=0.000 %noloadloss=0.000
~ wdg=1 conn=w kv=2.400 kva=10000.0 %r=0.003000
~ wdg=2 conn=w kv=0.120 kva=1000.0 %r=0.000600
~ wdg=3 conn=w kv=0.120 kva=1000.0 %r=0.000600
new Xfmrcode.cimxfmrcode_xfmr_684_a_5 windings=3 phases=1 xhl=2.040000 xht=2.040000 xlt=0.136000 %imag=0.000 %noloadloss=0.000
~ wdg=1 conn=w kv=2.400 kva=10000.0 %r=0.003000
~ wdg=2 conn=w kv=0.120 kva=1000.0 %r=0.000600
~ wdg=3 conn=w kv=0.120 kva=1000.0 %r=0.000600
new Xfmrcode.cimxfmrcode_xfmr_671_c_1 windings=3 phases=1 xhl=2.040000 xht=2.040000 xlt=0.136000 %imag=0.000 %noloadloss=0.000
~ wdg=1 conn=w kv=2.400 kva=10000.0 %r=0.003000
~ wdg=2 conn=w kv=0.120 kva=1000.0 %r=0.000600
~ wdg=3 conn=w kv=0.120 kva=1000.0 %r=0.000600
new Xfmrcode.cimxfmrcode_xfmr_671_c_2 windings=3 phases=1 xhl=2.040000 xht=2.040000 xlt=0.136000 %imag=0.000 %noloadloss=0.000
~ wdg=1 conn=w kv=2.400 kva=10000.0 %r=0.003000
~ wdg=2 conn=w kv=0.120 kva=1000.0 %r=0.000600
~ wdg=3 conn=w kv=0.120 kva=1000.0 %r=0.000600
new Xfmrcode.cimxfmrcode_xfmr_632_b_1 windings=3 phases=1 xhl=2.040000 xht=2.040000 xlt=0.136000 %imag=0.000 %noloadloss=0.000
~ wdg=1 conn=w kv=2.400 kva=10000.0 %r=0.003000
~ wdg=2 conn=w kv=0.120 kva=1000.0 %r=0.000600
~ wdg=3 conn=w kv=0.120 kva=1000.0 %r=0.000600
new Xfmrcode.cimxfmrcode_xfmr_684_a_2 windings=3 phases=1 xhl=2.040000 xht=2.040000 xlt=0.136000 %imag=0.000 %noloadloss=0.000
~ wdg=1 conn=w kv=2.400 kva=10000.0 %r=0.003000
~ wdg=2 conn=w kv=0.120 kva=1000.0 %r=0.000600
~ wdg=3 conn=w kv=0.120 kva=1000.0 %r=0.000600
new Xfmrcode.cimxfmrcode_xfmr_632_b_2 windings=3 phases=1 xhl=2.040000 xht=2.040000 xlt=0.136000 %imag=0.000 %noloadloss=0.000
~ wdg=1 conn=w kv=2.400 kva=10000.0 %r=0.003000
~ wdg=2 conn=w kv=0.120 kva=1000.0 %r=0.000600
~ wdg=3 conn=w kv=0.120 kva=1000.0 %r=0.000600
new Xfmrcode.cimxfmrcode_xfmr_684_a_1 windings=3 phases=1 xhl=2.040000 xht=2.040000 xlt=0.136000 %imag=0.000 %noloadloss=0.000
~ wdg=1 conn=w kv=2.400 kva=10000.0 %r=0.003000
~ wdg=2 conn=w kv=0.120 kva=1000.0 %r=0.000600
~ wdg=3 conn=w kv=0.120 kva=1000.0 %r=0.000600
new Xfmrcode.cimxfmrcode_xfmr_632_b_3 windings=3 phases=1 xhl=2.040000 xht=2.040000 xlt=0.136000 %imag=0.000 %noloadloss=0.000
~ wdg=1 conn=w kv=2.400 kva=10000.0 %r=0.003000
~ wdg=2 conn=w kv=0.120 kva=1000.0 %r=0.000600
~ wdg=3 conn=w kv=0.120 kva=1000.0 %r=0.000600
new Xfmrcode.cimxfmrcode_xfmr_632_b_4 windings=3 phases=1 xhl=2.040000 xht=2.040000 xlt=0.136000 %imag=0.000 %noloadloss=0.000
~ wdg=1 conn=w kv=2.400 kva=10000.0 %r=0.003000
~ wdg=2 conn=w kv=0.120 kva=1000.0 %r=0.000600
~ wdg=3 conn=w kv=0.120 kva=1000.0 %r=0.000600
new Xfmrcode.cimxfmrcode_xfmr_632_b_5 windings=3 phases=1 xhl=2.040000 xht=2.040000 xlt=0.136000 %imag=0.000 %noloadloss=0.000
~ wdg=1 conn=w kv=2.400 kva=10000.0 %r=0.003000
~ wdg=2 conn=w kv=0.120 kva=1000.0 %r=0.000600
~ wdg=3 conn=w kv=0.120 kva=1000.0 %r=0.000600
new Xfmrcode.cimxfmrcode_xfmr_680_b_2 windings=3 phases=1 xhl=2.040000 xht=2.040000 xlt=0.136000 %imag=0.000 %noloadloss=0.000
~ wdg=1 conn=w kv=2.400 kva=10000.0 %r=0.003000
~ wdg=2 conn=w kv=0.120 kva=1000.0 %r=0.000600
~ wdg=3 conn=w kv=0.120 kva=1000.0 %r=0.000600
new Xfmrcode.cimxfmrcode_xfmr_680_b_3 windings=3 phases=1 xhl=2.040000 xht=2.040000 xlt=0.136000 %imag=0.000 %noloadloss=0.000
~ wdg=1 conn=w kv=2.400 kva=10000.0 %r=0.003000
~ wdg=2 conn=w kv=0.120 kva=1000.0 %r=0.000600
~ wdg=3 conn=w kv=0.120 kva=1000.0 %r=0.000600
new Xfmrcode.cimxfmrcode_xfmr_680_b_4 windings=3 phases=1 xhl=2.040000 xht=2.040000 xlt=0.136000 %imag=0.000 %noloadloss=0.000
~ wdg=1 conn=w kv=2.400 kva=10000.0 %r=0.003000
~ wdg=2 conn=w kv=0.120 kva=1000.0 %r=0.000600
~ wdg=3 conn=w kv=0.120 kva=1000.0 %r=0.000600
new Xfmrcode.cimxfmrcode_xfmr_680_b_5 windings=3 phases=1 xhl=2.040000 xht=2.040000 xlt=0.136000 %imag=0.000 %noloadloss=0.000
~ wdg=1 conn=w kv=2.400 kva=10000.0 %r=0.003000
~ wdg=2 conn=w kv=0.120 kva=1000.0 %r=0.000600
~ wdg=3 conn=w kv=0.120 kva=1000.0 %r=0.000600
new Xfmrcode.cimxfmrcode_xfmr_680_b_1 windings=3 phases=1 xhl=2.040000 xht=2.040000 xlt=0.136000 %imag=0.000 %noloadloss=0.000
~ wdg=1 conn=w kv=2.400 kva=10000.0 %r=0.003000
~ wdg=2 conn=w kv=0.120 kva=1000.0 %r=0.000600
~ wdg=3 conn=w kv=0.120 kva=1000.0 %r=0.000600
new Xfmrcode.cimxfmrcode_xfmr_675_b_4 windings=3 phases=1 xhl=2.040000 xht=2.040000 xlt=0.136000 %imag=0.000 %noloadloss=0.000
~ wdg=1 conn=w kv=2.400 kva=10000.0 %r=0.003000
~ wdg=2 conn=w kv=0.120 kva=1000.0 %r=0.000600
~ wdg=3 conn=w kv=0.120 kva=1000.0 %r=0.000600
new Xfmrcode.cimxfmrcode_xfmr_675_b_5 windings=3 phases=1 xhl=2.040000 xht=2.040000 xlt=0.136000 %imag=0.000 %noloadloss=0.000
~ wdg=1 conn=w kv=2.400 kva=10000.0 %r=0.003000
~ wdg=2 conn=w kv=0.120 kva=1000.0 %r=0.000600
~ wdg=3 conn=w kv=0.120 kva=1000.0 %r=0.000600
new Xfmrcode.cimxfmrcode_xfmr_675_b_2 windings=3 phases=1 xhl=2.040000 xht=2.040000 xlt=0.136000 %imag=0.000 %noloadloss=0.000
~ wdg=1 conn=w kv=2.400 kva=10000.0 %r=0.003000
~ wdg=2 conn=w kv=0.120 kva=1000.0 %r=0.000600
~ wdg=3 conn=w kv=0.120 kva=1000.0 %r=0.000600
new Xfmrcode.cimxfmrcode_xfmr_675_b_3 windings=3 phases=1 xhl=2.040000 xht=2.040000 xlt=0.136000 %imag=0.000 %noloadloss=0.000
~ wdg=1 conn=w kv=2.400 kva=10000.0 %r=0.003000
~ wdg=2 conn=w kv=0.120 kva=1000.0 %r=0.000600
~ wdg=3 conn=w kv=0.120 kva=1000.0 %r=0.000600
new Xfmrcode.cimxfmrcode_xfmr_675_b_1 windings=3 phases=1 xhl=2.040000 xht=2.040000 xlt=0.136000 %imag=0.000 %noloadloss=0.000
~ wdg=1 conn=w kv=2.400 kva=10000.0 %r=0.003000
~ wdg=2 conn=w kv=0.120 kva=1000.0 %r=0.000600
~ wdg=3 conn=w kv=0.120 kva=1000.0 %r=0.000600
new Xfmrcode.cimxfmrcode_xfmr_633_c_5 windings=3 phases=1 xhl=2.040000 xht=2.040000 xlt=0.136000 %imag=0.000 %noloadloss=0.000
~ wdg=1 conn=w kv=2.400 kva=10000.0 %r=0.003000
~ wdg=2 conn=w kv=0.120 kva=1000.0 %r=0.000600
~ wdg=3 conn=w kv=0.120 kva=1000.0 %r=0.000600
new Xfmrcode.cimxfmrcode_xfmr_692_a_1 windings=3 phases=1 xhl=2.040000 xht=2.040000 xlt=0.136000 %imag=0.000 %noloadloss=0.000
~ wdg=1 conn=w kv=2.400 kva=10000.0 %r=0.003000
~ wdg=2 conn=w kv=0.120 kva=1000.0 %r=0.000600
~ wdg=3 conn=w kv=0.120 kva=1000.0 %r=0.000600
new Xfmrcode.cimxfmrcode_xfmr_633_c_3 windings=3 phases=1 xhl=2.040000 xht=2.040000 xlt=0.136000 %imag=0.000 %noloadloss=0.000
~ wdg=1 conn=w kv=2.400 kva=10000.0 %r=0.003000
~ wdg=2 conn=w kv=0.120 kva=1000.0 %r=0.000600
~ wdg=3 conn=w kv=0.120 kva=1000.0 %r=0.000600
new Xfmrcode.cimxfmrcode_xfmr_632_a_1 windings=3 phases=1 xhl=2.040000 xht=2.040000 xlt=0.136000 %imag=0.000 %noloadloss=0.000
~ wdg=1 conn=w kv=2.400 kva=10000.0 %r=0.003000
~ wdg=2 conn=w kv=0.120 kva=1000.0 %r=0.000600
~ wdg=3 conn=w kv=0.120 kva=1000.0 %r=0.000600
new Xfmrcode.cimxfmrcode_xfmr_633_c_4 windings=3 phases=1 xhl=2.040000 xht=2.040000 xlt=0.136000 %imag=0.000 %noloadloss=0.000
~ wdg=1 conn=w kv=2.400 kva=10000.0 %r=0.003000
~ wdg=2 conn=w kv=0.120 kva=1000.0 %r=0.000600
~ wdg=3 conn=w kv=0.120 kva=1000.0 %r=0.000600
new Xfmrcode.cimxfmrcode_xfmr_632_a_2 windings=3 phases=1 xhl=2.040000 xht=2.040000 xlt=0.136000 %imag=0.000 %noloadloss=0.000
~ wdg=1 conn=w kv=2.400 kva=10000.0 %r=0.003000
~ wdg=2 conn=w kv=0.120 kva=1000.0 %r=0.000600
~ wdg=3 conn=w kv=0.120 kva=1000.0 %r=0.000600
new Xfmrcode.cimxfmrcode_xfmr_633_c_1 windings=3 phases=1 xhl=2.040000 xht=2.040000 xlt=0.136000 %imag=0.000 %noloadloss=0.000
~ wdg=1 conn=w kv=2.400 kva=10000.0 %r=0.003000
~ wdg=2 conn=w kv=0.120 kva=1000.0 %r=0.000600
~ wdg=3 conn=w kv=0.120 kva=1000.0 %r=0.000600
new Xfmrcode.cimxfmrcode_xfmr_632_a_3 windings=3 phases=1 xhl=2.040000 xht=2.040000 xlt=0.136000 %imag=0.000 %noloadloss=0.000
~ wdg=1 conn=w kv=2.400 kva=10000.0 %r=0.003000
~ wdg=2 conn=w kv=0.120 kva=1000.0 %r=0.000600
~ wdg=3 conn=w kv=0.120 kva=1000.0 %r=0.000600
new Xfmrcode.cimxfmrcode_xfmr_633_c_2 windings=3 phases=1 xhl=2.040000 xht=2.040000 xlt=0.136000 %imag=0.000 %noloadloss=0.000
~ wdg=1 conn=w kv=2.400 kva=10000.0 %r=0.003000
~ wdg=2 conn=w kv=0.120 kva=1000.0 %r=0.000600
~ wdg=3 conn=w kv=0.120 kva=1000.0 %r=0.000600
new Xfmrcode.cimxfmrcode_xfmr_632_a_4 windings=3 phases=1 xhl=2.040000 xht=2.040000 xlt=0.136000 %imag=0.000 %noloadloss=0.000
~ wdg=1 conn=w kv=2.400 kva=10000.0 %r=0.003000
~ wdg=2 conn=w kv=0.120 kva=1000.0 %r=0.000600
~ wdg=3 conn=w kv=0.120 kva=1000.0 %r=0.000600
new Xfmrcode.cimxfmrcode_xfmr_680_c_5 windings=3 phases=1 xhl=2.040000 xht=2.040000 xlt=0.136000 %imag=0.000 %noloadloss=0.000
~ wdg=1 conn=w kv=2.400 kva=10000.0 %r=0.003000
~ wdg=2 conn=w kv=0.120 kva=1000.0 %r=0.000600
~ wdg=3 conn=w kv=0.120 kva=1000.0 %r=0.000600
new Xfmrcode.cimxfmrcode_xfmr_632_a_5 windings=3 phases=1 xhl=2.040000 xht=2.040000 xlt=0.136000 %imag=0.000 %noloadloss=0.000
~ wdg=1 conn=w kv=2.400 kva=10000.0 %r=0.003000
~ wdg=2 conn=w kv=0.120 kva=1000.0 %r=0.000600
~ wdg=3 conn=w kv=0.120 kva=1000.0 %r=0.000600
new Xfmrcode.cimxfmrcode_xfmr_680_c_1 windings=3 phases=1 xhl=2.040000 xht=2.040000 xlt=0.136000 %imag=0.000 %noloadloss=0.000
~ wdg=1 conn=w kv=2.400 kva=10000.0 %r=0.003000
~ wdg=2 conn=w kv=0.120 kva=1000.0 %r=0.000600
~ wdg=3 conn=w kv=0.120 kva=1000.0 %r=0.000600
new Xfmrcode.cimxfmrcode_xfmr_680_c_2 windings=3 phases=1 xhl=2.040000 xht=2.040000 xlt=0.136000 %imag=0.000 %noloadloss=0.000
~ wdg=1 conn=w kv=2.400 kva=10000.0 %r=0.003000
~ wdg=2 conn=w kv=0.120 kva=1000.0 %r=0.000600
~ wdg=3 conn=w kv=0.120 kva=1000.0 %r=0.000600
new Xfmrcode.cimxfmrcode_xfmr_680_c_3 windings=3 phases=1 xhl=2.040000 xht=2.040000 xlt=0.136000 %imag=0.000 %noloadloss=0.000
~ wdg=1 conn=w kv=2.400 kva=10000.0 %r=0.003000
~ wdg=2 conn=w kv=0.120 kva=1000.0 %r=0.000600
~ wdg=3 conn=w kv=0.120 kva=1000.0 %r=0.000600
new Xfmrcode.cimxfmrcode_xfmr_680_c_4 windings=3 phases=1 xhl=2.040000 xht=2.040000 xlt=0.136000 %imag=0.000 %noloadloss=0.000
~ wdg=1 conn=w kv=2.400 kva=10000.0 %r=0.003000
~ wdg=2 conn=w kv=0.120 kva=1000.0 %r=0.000600
~ wdg=3 conn=w kv=0.120 kva=1000.0 %r=0.000600
new Xfmrcode.cimxfmrcode_xfmr_675_a_5 windings=3 phases=1 xhl=2.040000 xht=2.040000 xlt=0.136000 %imag=0.000 %noloadloss=0.000
~ wdg=1 conn=w kv=2.400 kva=10000.0 %r=0.003000
~ wdg=2 conn=w kv=0.120 kva=1000.0 %r=0.000600
~ wdg=3 conn=w kv=0.120 kva=1000.0 %r=0.000600
new Xfmrcode.cimxfmrcode_xfmr_675_a_3 windings=3 phases=1 xhl=2.040000 xht=2.040000 xlt=0.136000 %imag=0.000 %noloadloss=0.000
~ wdg=1 conn=w kv=2.400 kva=10000.0 %r=0.003000
~ wdg=2 conn=w kv=0.120 kva=1000.0 %r=0.000600
~ wdg=3 conn=w kv=0.120 kva=1000.0 %r=0.000600
new Xfmrcode.cimxfmrcode_xfmr_675_a_4 windings=3 phases=1 xhl=2.040000 xht=2.040000 xlt=0.136000 %imag=0.000 %noloadloss=0.000
~ wdg=1 conn=w kv=2.400 kva=10000.0 %r=0.003000
~ wdg=2 conn=w kv=0.120 kva=1000.0 %r=0.000600
~ wdg=3 conn=w kv=0.120 kva=1000.0 %r=0.000600
new Xfmrcode.cimxfmrcode_xfmr_675_a_1 windings=3 phases=1 xhl=2.040000 xht=2.040000 xlt=0.136000 %imag=0.000 %noloadloss=0.000
~ wdg=1 conn=w kv=2.400 kva=10000.0 %r=0.003000
~ wdg=2 conn=w kv=0.120 kva=1000.0 %r=0.000600
~ wdg=3 conn=w kv=0.120 kva=1000.0 %r=0.000600
new Xfmrcode.cimxfmrcode_xfmr_675_a_2 windings=3 phases=1 xhl=2.040000 xht=2.040000 xlt=0.136000 %imag=0.000 %noloadloss=0.000
~ wdg=1 conn=w kv=2.400 kva=10000.0 %r=0.003000
~ wdg=2 conn=w kv=0.120 kva=1000.0 %r=0.000600
~ wdg=3 conn=w kv=0.120 kva=1000.0 %r=0.000600
new Xfmrcode.cimxfmrcode_xfmr_692_a_3 windings=3 phases=1 xhl=2.040000 xht=2.040000 xlt=0.136000 %imag=0.000 %noloadloss=0.000
~ wdg=1 conn=w kv=2.400 kva=10000.0 %r=0.003000
~ wdg=2 conn=w kv=0.120 kva=1000.0 %r=0.000600
~ wdg=3 conn=w kv=0.120 kva=1000.0 %r=0.000600
new Xfmrcode.cimxfmrcode_xfmr_692_a_2 windings=3 phases=1 xhl=2.040000 xht=2.040000 xlt=0.136000 %imag=0.000 %noloadloss=0.000
~ wdg=1 conn=w kv=2.400 kva=10000.0 %r=0.003000
~ wdg=2 conn=w kv=0.120 kva=1000.0 %r=0.000600
~ wdg=3 conn=w kv=0.120 kva=1000.0 %r=0.000600
new Xfmrcode.cimxfmrcode_xfmr_692_a_5 windings=3 phases=1 xhl=2.040000 xht=2.040000 xlt=0.136000 %imag=0.000 %noloadloss=0.000
~ wdg=1 conn=w kv=2.400 kva=10000.0 %r=0.003000
~ wdg=2 conn=w kv=0.120 kva=1000.0 %r=0.000600
~ wdg=3 conn=w kv=0.120 kva=1000.0 %r=0.000600
new Xfmrcode.cimxfmrcode_xfmr_692_a_4 windings=3 phases=1 xhl=2.040000 xht=2.040000 xlt=0.136000 %imag=0.000 %noloadloss=0.000
~ wdg=1 conn=w kv=2.400 kva=10000.0 %r=0.003000
~ wdg=2 conn=w kv=0.120 kva=1000.0 %r=0.000600
~ wdg=3 conn=w kv=0.120 kva=1000.0 %r=0.000600




new Load.trip_load_633_b_40 phases=1 bus1=trip_load_633_b_h_40.1.2 conn=w kw=0.100 kvar=0.000 numcust=1 kv=0.120 model=1
new Load.trip_load_645_b_5 phases=1 bus1=trip_load_645_b_h_5.1.2 conn=w kw=0.100 kvar=0.000 numcust=1 kv=0.120 model=1
new Load.trip_load_645_c_15 phases=1 bus1=trip_load_645_c_h_15.1.2 conn=w kw=0.100 kvar=0.000 numcust=1 kv=0.120 model=1
new Load.trip_load_671_c_40 phases=1 bus1=trip_load_671_c_h_40.1.2 conn=w kw=0.100 kvar=0.000 numcust=1 kv=0.120 model=1
new Load.trip_load_645_b_4 phases=1 bus1=trip_load_645_b_h_4.1.2 conn=w kw=0.100 kvar=0.000 numcust=1 kv=0.120 model=1
new Load.trip_load_645_c_14 phases=1 bus1=trip_load_645_c_h_14.1.2 conn=w kw=0.100 kvar=0.000 numcust=1 kv=0.120 model=1
new Load.trip_load_645_b_7 phases=1 bus1=trip_load_645_b_h_7.1.2 conn=w kw=0.100 kvar=0.000 numcust=1 kv=0.120 model=1
new Load.trip_load_645_c_13 phases=1 bus1=trip_load_645_c_h_13.1.2 conn=w kw=0.100 kvar=0.000 numcust=1 kv=0.120 model=1
new Load.trip_load_645_b_6 phases=1 bus1=trip_load_645_b_h_6.1.2 conn=w kw=0.100 kvar=0.000 numcust=1 kv=0.120 model=1
new Load.trip_load_645_c_12 phases=1 bus1=trip_load_645_c_h_12.1.2 conn=w kw=0.100 kvar=0.000 numcust=1 kv=0.120 model=1
new Load.trip_load_645_b_9 phases=1 bus1=trip_load_645_b_h_9.1.2 conn=w kw=0.100 kvar=0.000 numcust=1 kv=0.120 model=1
new Load.trip_load_645_c_11 phases=1 bus1=trip_load_645_c_h_11.1.2 conn=w kw=0.100 kvar=0.000 numcust=1 kv=0.120 model=1
new Load.trip_load_645_b_8 phases=1 bus1=trip_load_645_b_h_8.1.2 conn=w kw=0.100 kvar=0.000 numcust=1 kv=0.120 model=1
new Load.trip_load_645_c_10 phases=1 bus1=trip_load_645_c_h_10.1.2 conn=w kw=0.100 kvar=0.000 numcust=1 kv=0.120 model=1
new Load.trip_load_684_c_9 phases=1 bus1=trip_load_684_c_h_9.1.2 conn=w kw=0.100 kvar=0.000 numcust=1 kv=0.120 model=1
new Load.trip_load_684_c_8 phases=1 bus1=trip_load_684_c_h_8.1.2 conn=w kw=0.100 kvar=0.000 numcust=1 kv=0.120 model=1
new Load.trip_load_645_c_19 phases=1 bus1=trip_load_645_c_h_19.1.2 conn=w kw=0.100 kvar=0.000 numcust=1 kv=0.120 model=1
new Load.trip_load_645_c_18 phases=1 bus1=trip_load_645_c_h_18.1.2 conn=w kw=0.100 kvar=0.000 numcust=1 kv=0.120 model=1
new Load.trip_load_645_c_17 phases=1 bus1=trip_load_645_c_h_17.1.2 conn=w kw=0.100 kvar=0.000 numcust=1 kv=0.120 model=1
new Load.trip_load_645_c_16 phases=1 bus1=trip_load_645_c_h_16.1.2 conn=w kw=0.100 kvar=0.000 numcust=1 kv=0.120 model=1
new Load.trip_load_633_b_35 phases=1 bus1=trip_load_633_b_h_35.1.2 conn=w kw=0.100 kvar=0.000 numcust=1 kv=0.120 model=1
new Load.trip_load_633_b_34 phases=1 bus1=trip_load_633_b_h_34.1.2 conn=w kw=0.100 kvar=0.000 numcust=1 kv=0.120 model=1
new Load.trip_load_633_b_33 phases=1 bus1=trip_load_633_b_h_33.1.2 conn=w kw=0.100 kvar=0.000 numcust=1 kv=0.120 model=1
new Load.trip_load_633_b_32 phases=1 bus1=trip_load_633_b_h_32.1.2 conn=w kw=0.100 kvar=0.000 numcust=1 kv=0.120 model=1
new Load.trip_load_633_b_31 phases=1 bus1=trip_load_633_b_h_31.1.2 conn=w kw=0.100 kvar=0.000 numcust=1 kv=0.120 model=1
new Load.trip_load_633_b_30 phases=1 bus1=trip_load_633_b_h_30.1.2 conn=w kw=0.100 kvar=0.000 numcust=1 kv=0.120 model=1
new Load.trip_load_684_c_7 phases=1 bus1=trip_load_684_c_h_7.1.2 conn=w kw=0.100 kvar=0.000 numcust=1 kv=0.120 model=1
new Load.trip_load_684_c_6 phases=1 bus1=trip_load_684_c_h_6.1.2 conn=w kw=0.100 kvar=0.000 numcust=1 kv=0.120 model=1
new Load.trip_load_684_c_5 phases=1 bus1=trip_load_684_c_h_5.1.2 conn=w kw=0.100 kvar=0.000 numcust=1 kv=0.120 model=1
new Load.trip_load_684_c_4 phases=1 bus1=trip_load_684_c_h_4.1.2 conn=w kw=0.100 kvar=0.000 numcust=1 kv=0.120 model=1
new Load.trip_load_633_b_39 phases=1 bus1=trip_load_633_b_h_39.1.2 conn=w kw=0.100 kvar=0.000 numcust=1 kv=0.120 model=1
new Load.trip_load_645_b_1 phases=1 bus1=trip_load_645_b_h_1.1.2 conn=w kw=0.100 kvar=0.000 numcust=1 kv=0.120 model=1
new Load.trip_load_684_c_3 phases=1 bus1=trip_load_684_c_h_3.1.2 conn=w kw=0.100 kvar=0.000 numcust=1 kv=0.120 model=1
new Load.trip_load_633_b_38 phases=1 bus1=trip_load_633_b_h_38.1.2 conn=w kw=0.100 kvar=0.000 numcust=1 kv=0.120 model=1
new Load.trip_load_684_c_2 phases=1 bus1=trip_load_684_c_h_2.1.2 conn=w kw=0.100 kvar=0.000 numcust=1 kv=0.120 model=1
new Load.trip_load_633_b_37 phases=1 bus1=trip_load_633_b_h_37.1.2 conn=w kw=0.100 kvar=0.000 numcust=1 kv=0.120 model=1
new Load.trip_load_645_b_3 phases=1 bus1=trip_load_645_b_h_3.1.2 conn=w kw=0.100 kvar=0.000 numcust=1 kv=0.120 model=1
new Load.trip_load_684_c_1 phases=1 bus1=trip_load_684_c_h_1.1.2 conn=w kw=0.100 kvar=0.000 numcust=1 kv=0.120 model=1
new Load.trip_load_633_b_36 phases=1 bus1=trip_load_633_b_h_36.1.2 conn=w kw=0.100 kvar=0.000 numcust=1 kv=0.120 model=1
new Load.trip_load_645_b_2 phases=1 bus1=trip_load_645_b_h_2.1.2 conn=w kw=0.100 kvar=0.000 numcust=1 kv=0.120 model=1
new Load.trip_load_645_c_26 phases=1 bus1=trip_load_645_c_h_26.1.2 conn=w kw=0.100 kvar=0.000 numcust=1 kv=0.120 model=1
new Load.trip_load_645_c_25 phases=1 bus1=trip_load_645_c_h_25.1.2 conn=w kw=0.100 kvar=0.000 numcust=1 kv=0.120 model=1
new Load.trip_load_671_c_30 phases=1 bus1=trip_load_671_c_h_30.1.2 conn=w kw=0.100 kvar=0.000 numcust=1 kv=0.120 model=1
new Load.trip_load_645_c_24 phases=1 bus1=trip_load_645_c_h_24.1.2 conn=w kw=0.100 kvar=0.000 numcust=1 kv=0.120 model=1
new Load.trip_load_645_c_23 phases=1 bus1=trip_load_645_c_h_23.1.2 conn=w kw=0.100 kvar=0.000 numcust=1 kv=0.120 model=1
new Load.trip_load_645_c_22 phases=1 bus1=trip_load_645_c_h_22.1.2 conn=w kw=0.100 kvar=0.000 numcust=1 kv=0.120 model=1
new Load.trip_load_645_c_21 phases=1 bus1=trip_load_645_c_h_21.1.2 conn=w kw=0.100 kvar=0.000 numcust=1 kv=0.120 model=1
new Load.trip_load_645_c_20 phases=1 bus1=trip_load_645_c_h_20.1.2 conn=w kw=0.100 kvar=0.000 numcust=1 kv=0.120 model=1
new Load.trip_load_671_c_37 phases=1 bus1=trip_load_671_c_h_37.1.2 conn=w kw=0.100 kvar=0.000 numcust=1 kv=0.120 model=1
new Load.trip_load_671_c_38 phases=1 bus1=trip_load_671_c_h_38.1.2 conn=w kw=0.100 kvar=0.000 numcust=1 kv=0.120 model=1
new Load.trip_load_671_c_35 phases=1 bus1=trip_load_671_c_h_35.1.2 conn=w kw=0.100 kvar=0.000 numcust=1 kv=0.120 model=1
new Load.trip_load_671_c_36 phases=1 bus1=trip_load_671_c_h_36.1.2 conn=w kw=0.100 kvar=0.000 numcust=1 kv=0.120 model=1
new Load.trip_load_671_c_33 phases=1 bus1=trip_load_671_c_h_33.1.2 conn=w kw=0.100 kvar=0.000 numcust=1 kv=0.120 model=1
new Load.trip_load_645_c_29 phases=1 bus1=trip_load_645_c_h_29.1.2 conn=w kw=0.100 kvar=0.000 numcust=1 kv=0.120 model=1
new Load.trip_load_671_c_34 phases=1 bus1=trip_load_671_c_h_34.1.2 conn=w kw=0.100 kvar=0.000 numcust=1 kv=0.120 model=1
new Load.trip_load_645_c_28 phases=1 bus1=trip_load_645_c_h_28.1.2 conn=w kw=0.100 kvar=0.000 numcust=1 kv=0.120 model=1
new Load.trip_load_671_c_31 phases=1 bus1=trip_load_671_c_h_31.1.2 conn=w kw=0.100 kvar=0.000 numcust=1 kv=0.120 model=1
new Load.trip_load_645_c_27 phases=1 bus1=trip_load_645_c_h_27.1.2 conn=w kw=0.100 kvar=0.000 numcust=1 kv=0.120 model=1
new Load.trip_load_671_c_32 phases=1 bus1=trip_load_671_c_h_32.1.2 conn=w kw=0.100 kvar=0.000 numcust=1 kv=0.120 model=1
new Load.trip_load_671_c_39 phases=1 bus1=trip_load_671_c_h_39.1.2 conn=w kw=0.100 kvar=0.000 numcust=1 kv=0.120 model=1
new Load.trip_load_645_c_37 phases=1 bus1=trip_load_645_c_h_37.1.2 conn=w kw=0.100 kvar=0.000 numcust=1 kv=0.120 model=1
new Load.trip_load_645_c_36 phases=1 bus1=trip_load_645_c_h_36.1.2 conn=w kw=0.100 kvar=0.000 numcust=1 kv=0.120 model=1
new Load.trip_load_645_c_35 phases=1 bus1=trip_load_645_c_h_35.1.2 conn=w kw=0.100 kvar=0.000 numcust=1 kv=0.120 model=1
new Load.trip_load_645_c_34 phases=1 bus1=trip_load_645_c_h_34.1.2 conn=w kw=0.100 kvar=0.000 numcust=1 kv=0.120 model=1
new Load.trip_load_692_a_9 phases=1 bus1=trip_load_692_a_h_9.1.2 conn=w kw=0.100 kvar=0.000 numcust=1 kv=0.120 model=1
new Load.trip_load_645_c_33 phases=1 bus1=trip_load_645_c_h_33.1.2 conn=w kw=0.100 kvar=0.000 numcust=1 kv=0.120 model=1
new Load.trip_load_692_a_8 phases=1 bus1=trip_load_692_a_h_8.1.2 conn=w kw=0.100 kvar=0.000 numcust=1 kv=0.120 model=1
new Load.trip_load_645_c_32 phases=1 bus1=trip_load_645_c_h_32.1.2 conn=w kw=0.100 kvar=0.000 numcust=1 kv=0.120 model=1
new Load.trip_load_692_a_7 phases=1 bus1=trip_load_692_a_h_7.1.2 conn=w kw=0.100 kvar=0.000 numcust=1 kv=0.120 model=1
new Load.trip_load_645_c_31 phases=1 bus1=trip_load_645_c_h_31.1.2 conn=w kw=0.100 kvar=0.000 numcust=1 kv=0.120 model=1
new Load.trip_load_692_a_6 phases=1 bus1=trip_load_692_a_h_6.1.2 conn=w kw=0.100 kvar=0.000 numcust=1 kv=0.120 model=1
new Load.trip_load_645_c_30 phases=1 bus1=trip_load_645_c_h_30.1.2 conn=w kw=0.100 kvar=0.000 numcust=1 kv=0.120 model=1
new Load.trip_load_692_a_5 phases=1 bus1=trip_load_692_a_h_5.1.2 conn=w kw=0.100 kvar=0.000 numcust=1 kv=0.120 model=1
new Load.trip_load_671_c_26 phases=1 bus1=trip_load_671_c_h_26.1.2 conn=w kw=0.100 kvar=0.000 numcust=1 kv=0.120 model=1
new Load.trip_load_692_a_4 phases=1 bus1=trip_load_692_a_h_4.1.2 conn=w kw=0.100 kvar=0.000 numcust=1 kv=0.120 model=1
new Load.trip_load_671_c_27 phases=1 bus1=trip_load_671_c_h_27.1.2 conn=w kw=0.100 kvar=0.000 numcust=1 kv=0.120 model=1
new Load.trip_load_692_a_3 phases=1 bus1=trip_load_692_a_h_3.1.2 conn=w kw=0.100 kvar=0.000 numcust=1 kv=0.120 model=1
new Load.trip_load_671_c_24 phases=1 bus1=trip_load_671_c_h_24.1.2 conn=w kw=0.100 kvar=0.000 numcust=1 kv=0.120 model=1
new Load.trip_load_692_a_2 phases=1 bus1=trip_load_692_a_h_2.1.2 conn=w kw=0.100 kvar=0.000 numcust=1 kv=0.120 model=1
new Load.trip_load_671_c_25 phases=1 bus1=trip_load_671_c_h_25.1.2 conn=w kw=0.100 kvar=0.000 numcust=1 kv=0.120 model=1
new Load.trip_load_692_a_1 phases=1 bus1=trip_load_692_a_h_1.1.2 conn=w kw=0.100 kvar=0.000 numcust=1 kv=0.120 model=1
new Load.trip_load_671_c_22 phases=1 bus1=trip_load_671_c_h_22.1.2 conn=w kw=0.100 kvar=0.000 numcust=1 kv=0.120 model=1
new Load.trip_load_671_c_23 phases=1 bus1=trip_load_671_c_h_23.1.2 conn=w kw=0.100 kvar=0.000 numcust=1 kv=0.120 model=1
new Load.trip_load_645_c_39 phases=1 bus1=trip_load_645_c_h_39.1.2 conn=w kw=0.100 kvar=0.000 numcust=1 kv=0.120 model=1
new Load.trip_load_671_c_20 phases=1 bus1=trip_load_671_c_h_20.1.2 conn=w kw=0.100 kvar=0.000 numcust=1 kv=0.120 model=1
new Load.trip_load_645_c_38 phases=1 bus1=trip_load_645_c_h_38.1.2 conn=w kw=0.100 kvar=0.000 numcust=1 kv=0.120 model=1
new Load.trip_load_671_c_21 phases=1 bus1=trip_load_671_c_h_21.1.2 conn=w kw=0.100 kvar=0.000 numcust=1 kv=0.120 model=1
new Load.trip_load_671_c_28 phases=1 bus1=trip_load_671_c_h_28.1.2 conn=w kw=0.100 kvar=0.000 numcust=1 kv=0.120 model=1
new Load.trip_load_671_c_29 phases=1 bus1=trip_load_671_c_h_29.1.2 conn=w kw=0.100 kvar=0.000 numcust=1 kv=0.120 model=1
new Load.trip_load_645_c_40 phases=1 bus1=trip_load_645_c_h_40.1.2 conn=w kw=0.100 kvar=0.000 numcust=1 kv=0.120 model=1
new Load.trip_load_671_c_15 phases=1 bus1=trip_load_671_c_h_15.1.2 conn=w kw=0.100 kvar=0.000 numcust=1 kv=0.120 model=1
new Load.trip_load_671_c_16 phases=1 bus1=trip_load_671_c_h_16.1.2 conn=w kw=0.100 kvar=0.000 numcust=1 kv=0.120 model=1
new Load.trip_load_671_c_13 phases=1 bus1=trip_load_671_c_h_13.1.2 conn=w kw=0.100 kvar=0.000 numcust=1 kv=0.120 model=1
new Load.trip_load_671_c_14 phases=1 bus1=trip_load_671_c_h_14.1.2 conn=w kw=0.100 kvar=0.000 numcust=1 kv=0.120 model=1
new Load.trip_load_671_c_11 phases=1 bus1=trip_load_671_c_h_11.1.2 conn=w kw=0.100 kvar=0.000 numcust=1 kv=0.120 model=1
new Load.trip_load_671_c_12 phases=1 bus1=trip_load_671_c_h_12.1.2 conn=w kw=0.100 kvar=0.000 numcust=1 kv=0.120 model=1
new Load.trip_load_671_c_10 phases=1 bus1=trip_load_671_c_h_10.1.2 conn=w kw=0.100 kvar=0.000 numcust=1 kv=0.120 model=1
new Load.trip_load_671_c_19 phases=1 bus1=trip_load_671_c_h_19.1.2 conn=w kw=0.100 kvar=0.000 numcust=1 kv=0.120 model=1
new Load.trip_load_671_c_17 phases=1 bus1=trip_load_671_c_h_17.1.2 conn=w kw=0.100 kvar=0.000 numcust=1 kv=0.120 model=1
new Load.trip_load_671_c_18 phases=1 bus1=trip_load_671_c_h_18.1.2 conn=w kw=0.100 kvar=0.000 numcust=1 kv=0.120 model=1
new Load.trip_load_632_b_11 phases=1 bus1=trip_load_632_b_h_11.1.2 conn=w kw=0.100 kvar=0.000 numcust=1 kv=0.120 model=1
new Load.trip_load_632_b_12 phases=1 bus1=trip_load_632_b_h_12.1.2 conn=w kw=0.100 kvar=0.000 numcust=1 kv=0.120 model=1
new Load.trip_load_632_b_10 phases=1 bus1=trip_load_632_b_h_10.1.2 conn=w kw=0.100 kvar=0.000 numcust=1 kv=0.120 model=1
new Load.trip_load_632_b_15 phases=1 bus1=trip_load_632_b_h_15.1.2 conn=w kw=0.100 kvar=0.000 numcust=1 kv=0.120 model=1
new Load.trip_load_632_b_16 phases=1 bus1=trip_load_632_b_h_16.1.2 conn=w kw=0.100 kvar=0.000 numcust=1 kv=0.120 model=1
new Load.trip_load_632_b_13 phases=1 bus1=trip_load_632_b_h_13.1.2 conn=w kw=0.100 kvar=0.000 numcust=1 kv=0.120 model=1
new Load.trip_load_632_b_14 phases=1 bus1=trip_load_632_b_h_14.1.2 conn=w kw=0.100 kvar=0.000 numcust=1 kv=0.120 model=1
new Load.trip_load_632_b_19 phases=1 bus1=trip_load_632_b_h_19.1.2 conn=w kw=0.100 kvar=0.000 numcust=1 kv=0.120 model=1
new Load.trip_load_632_b_17 phases=1 bus1=trip_load_632_b_h_17.1.2 conn=w kw=0.100 kvar=0.000 numcust=1 kv=0.120 model=1
new Load.trip_load_632_b_18 phases=1 bus1=trip_load_632_b_h_18.1.2 conn=w kw=0.100 kvar=0.000 numcust=1 kv=0.120 model=1
new Load.trip_load_632_b_22 phases=1 bus1=trip_load_632_b_h_22.1.2 conn=w kw=0.100 kvar=0.000 numcust=1 kv=0.120 model=1
new Load.trip_load_632_b_23 phases=1 bus1=trip_load_632_b_h_23.1.2 conn=w kw=0.100 kvar=0.000 numcust=1 kv=0.120 model=1
new Load.trip_load_632_b_20 phases=1 bus1=trip_load_632_b_h_20.1.2 conn=w kw=0.100 kvar=0.000 numcust=1 kv=0.120 model=1
new Load.trip_load_632_b_21 phases=1 bus1=trip_load_632_b_h_21.1.2 conn=w kw=0.100 kvar=0.000 numcust=1 kv=0.120 model=1
new Load.trip_load_632_b_26 phases=1 bus1=trip_load_632_b_h_26.1.2 conn=w kw=0.100 kvar=0.000 numcust=1 kv=0.120 model=1
new Load.trip_load_632_b_27 phases=1 bus1=trip_load_632_b_h_27.1.2 conn=w kw=0.100 kvar=0.000 numcust=1 kv=0.120 model=1
new Load.trip_load_632_b_24 phases=1 bus1=trip_load_632_b_h_24.1.2 conn=w kw=0.100 kvar=0.000 numcust=1 kv=0.120 model=1
new Load.trip_load_632_b_25 phases=1 bus1=trip_load_632_b_h_25.1.2 conn=w kw=0.100 kvar=0.000 numcust=1 kv=0.120 model=1
new Load.trip_load_632_b_28 phases=1 bus1=trip_load_632_b_h_28.1.2 conn=w kw=0.100 kvar=0.000 numcust=1 kv=0.120 model=1
new Load.trip_load_632_b_29 phases=1 bus1=trip_load_632_b_h_29.1.2 conn=w kw=0.100 kvar=0.000 numcust=1 kv=0.120 model=1
new Load.trip_load_633_b_24 phases=1 bus1=trip_load_633_b_h_24.1.2 conn=w kw=0.100 kvar=0.000 numcust=1 kv=0.120 model=1
new Load.trip_load_633_b_23 phases=1 bus1=trip_load_633_b_h_23.1.2 conn=w kw=0.100 kvar=0.000 numcust=1 kv=0.120 model=1
new Load.trip_load_633_b_22 phases=1 bus1=trip_load_633_b_h_22.1.2 conn=w kw=0.100 kvar=0.000 numcust=1 kv=0.120 model=1
new Load.trip_load_633_b_21 phases=1 bus1=trip_load_633_b_h_21.1.2 conn=w kw=0.100 kvar=0.000 numcust=1 kv=0.120 model=1
new Load.trip_load_633_b_20 phases=1 bus1=trip_load_633_b_h_20.1.2 conn=w kw=0.100 kvar=0.000 numcust=1 kv=0.120 model=1
new Load.trip_load_633_b_29 phases=1 bus1=trip_load_633_b_h_29.1.2 conn=w kw=0.100 kvar=0.000 numcust=1 kv=0.120 model=1
new Load.trip_load_633_b_28 phases=1 bus1=trip_load_633_b_h_28.1.2 conn=w kw=0.100 kvar=0.000 numcust=1 kv=0.120 model=1
new Load.trip_load_633_b_27 phases=1 bus1=trip_load_633_b_h_27.1.2 conn=w kw=0.100 kvar=0.000 numcust=1 kv=0.120 model=1
new Load.trip_load_633_b_26 phases=1 bus1=trip_load_633_b_h_26.1.2 conn=w kw=0.100 kvar=0.000 numcust=1 kv=0.120 model=1
new Load.trip_load_633_b_25 phases=1 bus1=trip_load_633_b_h_25.1.2 conn=w kw=0.100 kvar=0.000 numcust=1 kv=0.120 model=1
new Load.trip_load_675_c_6 phases=1 bus1=trip_load_675_c_h_6.1.2 conn=w kw=0.100 kvar=0.000 numcust=1 kv=0.120 model=1
new Load.trip_load_632_b_30 phases=1 bus1=trip_load_632_b_h_30.1.2 conn=w kw=0.100 kvar=0.000 numcust=1 kv=0.120 model=1
new Load.trip_load_675_c_7 phases=1 bus1=trip_load_675_c_h_7.1.2 conn=w kw=0.100 kvar=0.000 numcust=1 kv=0.120 model=1
new Load.trip_load_692_c_9 phases=1 bus1=trip_load_692_c_h_9.1.2 conn=w kw=0.100 kvar=0.000 numcust=1 kv=0.120 model=1
new Load.trip_load_675_c_8 phases=1 bus1=trip_load_675_c_h_8.1.2 conn=w kw=0.100 kvar=0.000 numcust=1 kv=0.120 model=1
new Load.trip_load_692_c_8 phases=1 bus1=trip_load_692_c_h_8.1.2 conn=w kw=0.100 kvar=0.000 numcust=1 kv=0.120 model=1
new Load.trip_load_675_c_9 phases=1 bus1=trip_load_675_c_h_9.1.2 conn=w kw=0.100 kvar=0.000 numcust=1 kv=0.120 model=1
new Load.trip_load_692_c_7 phases=1 bus1=trip_load_692_c_h_7.1.2 conn=w kw=0.100 kvar=0.000 numcust=1 kv=0.120 model=1
new Load.trip_load_632_b_33 phases=1 bus1=trip_load_632_b_h_33.1.2 conn=w kw=0.100 kvar=0.000 numcust=1 kv=0.120 model=1
new Load.trip_load_692_c_6 phases=1 bus1=trip_load_692_c_h_6.1.2 conn=w kw=0.100 kvar=0.000 numcust=1 kv=0.120 model=1
new Load.trip_load_632_b_34 phases=1 bus1=trip_load_632_b_h_34.1.2 conn=w kw=0.100 kvar=0.000 numcust=1 kv=0.120 model=1
new Load.trip_load_692_c_5 phases=1 bus1=trip_load_692_c_h_5.1.2 conn=w kw=0.100 kvar=0.000 numcust=1 kv=0.120 model=1
new Load.trip_load_632_b_31 phases=1 bus1=trip_load_632_b_h_31.1.2 conn=w kw=0.100 kvar=0.000 numcust=1 kv=0.120 model=1
new Load.trip_load_692_c_4 phases=1 bus1=trip_load_692_c_h_4.1.2 conn=w kw=0.100 kvar=0.000 numcust=1 kv=0.120 model=1
new Load.trip_load_632_b_32 phases=1 bus1=trip_load_632_b_h_32.1.2 conn=w kw=0.100 kvar=0.000 numcust=1 kv=0.120 model=1
new Load.trip_load_692_c_3 phases=1 bus1=trip_load_692_c_h_3.1.2 conn=w kw=0.100 kvar=0.000 numcust=1 kv=0.120 model=1
new Load.trip_load_632_b_37 phases=1 bus1=trip_load_632_b_h_37.1.2 conn=w kw=0.100 kvar=0.000 numcust=1 kv=0.120 model=1
new Load.trip_load_692_c_2 phases=1 bus1=trip_load_692_c_h_2.1.2 conn=w kw=0.100 kvar=0.000 numcust=1 kv=0.120 model=1
new Load.trip_load_632_b_38 phases=1 bus1=trip_load_632_b_h_38.1.2 conn=w kw=0.100 kvar=0.000 numcust=1 kv=0.120 model=1
new Load.trip_load_692_c_1 phases=1 bus1=trip_load_692_c_h_1.1.2 conn=w kw=0.100 kvar=0.000 numcust=1 kv=0.120 model=1
new Load.trip_load_632_b_35 phases=1 bus1=trip_load_632_b_h_35.1.2 conn=w kw=0.100 kvar=0.000 numcust=1 kv=0.120 model=1
new Load.trip_load_632_b_36 phases=1 bus1=trip_load_632_b_h_36.1.2 conn=w kw=0.100 kvar=0.000 numcust=1 kv=0.120 model=1
new Load.trip_load_632_b_39 phases=1 bus1=trip_load_632_b_h_39.1.2 conn=w kw=0.100 kvar=0.000 numcust=1 kv=0.120 model=1
new Load.trip_load_671_a_40 phases=1 bus1=trip_load_671_a_h_40.1.2 conn=w kw=0.100 kvar=0.000 numcust=1 kv=0.120 model=1
new Load.trip_load_633_b_13 phases=1 bus1=trip_load_633_b_h_13.1.2 conn=w kw=0.100 kvar=0.000 numcust=1 kv=0.120 model=1
new Load.trip_load_633_b_12 phases=1 bus1=trip_load_633_b_h_12.1.2 conn=w kw=0.100 kvar=0.000 numcust=1 kv=0.120 model=1
new Load.trip_load_633_b_11 phases=1 bus1=trip_load_633_b_h_11.1.2 conn=w kw=0.100 kvar=0.000 numcust=1 kv=0.120 model=1
new Load.trip_load_633_b_10 phases=1 bus1=trip_load_633_b_h_10.1.2 conn=w kw=0.100 kvar=0.000 numcust=1 kv=0.120 model=1
new Load.trip_load_633_b_19 phases=1 bus1=trip_load_633_b_h_19.1.2 conn=w kw=0.100 kvar=0.000 numcust=1 kv=0.120 model=1
new Load.trip_load_633_b_18 phases=1 bus1=trip_load_633_b_h_18.1.2 conn=w kw=0.100 kvar=0.000 numcust=1 kv=0.120 model=1
new Load.trip_load_675_c_1 phases=1 bus1=trip_load_675_c_h_1.1.2 conn=w kw=0.100 kvar=0.000 numcust=1 kv=0.120 model=1
new Load.trip_load_633_b_17 phases=1 bus1=trip_load_633_b_h_17.1.2 conn=w kw=0.100 kvar=0.000 numcust=1 kv=0.120 model=1
new Load.trip_load_675_c_2 phases=1 bus1=trip_load_675_c_h_2.1.2 conn=w kw=0.100 kvar=0.000 numcust=1 kv=0.120 model=1
new Load.trip_load_633_b_16 phases=1 bus1=trip_load_633_b_h_16.1.2 conn=w kw=0.100 kvar=0.000 numcust=1 kv=0.120 model=1
new Load.trip_load_675_c_3 phases=1 bus1=trip_load_675_c_h_3.1.2 conn=w kw=0.100 kvar=0.000 numcust=1 kv=0.120 model=1
new Load.trip_load_633_b_15 phases=1 bus1=trip_load_633_b_h_15.1.2 conn=w kw=0.100 kvar=0.000 numcust=1 kv=0.120 model=1
new Load.trip_load_675_c_4 phases=1 bus1=trip_load_675_c_h_4.1.2 conn=w kw=0.100 kvar=0.000 numcust=1 kv=0.120 model=1
new Load.trip_load_633_b_14 phases=1 bus1=trip_load_633_b_h_14.1.2 conn=w kw=0.100 kvar=0.000 numcust=1 kv=0.120 model=1
new Load.trip_load_675_c_5 phases=1 bus1=trip_load_675_c_h_5.1.2 conn=w kw=0.100 kvar=0.000 numcust=1 kv=0.120 model=1
new Load.trip_load_632_b_40 phases=1 bus1=trip_load_632_b_h_40.1.2 conn=w kw=0.100 kvar=0.000 numcust=1 kv=0.120 model=1
new Load.trip_load_671_a_35 phases=1 bus1=trip_load_671_a_h_35.1.2 conn=w kw=0.100 kvar=0.000 numcust=1 kv=0.120 model=1
new Load.trip_load_680_c_15 phases=1 bus1=trip_load_680_c_h_15.1.2 conn=w kw=0.100 kvar=0.000 numcust=1 kv=0.120 model=1
new Load.trip_load_692_b_36 phases=1 bus1=trip_load_692_b_h_36.1.2 conn=w kw=0.100 kvar=0.000 numcust=1 kv=0.120 model=1
new Load.trip_load_671_a_36 phases=1 bus1=trip_load_671_a_h_36.1.2 conn=w kw=0.100 kvar=0.000 numcust=1 kv=0.120 model=1
new Load.trip_load_680_c_16 phases=1 bus1=trip_load_680_c_h_16.1.2 conn=w kw=0.100 kvar=0.000 numcust=1 kv=0.120 model=1
new Load.trip_load_692_b_35 phases=1 bus1=trip_load_692_b_h_35.1.2 conn=w kw=0.100 kvar=0.000 numcust=1 kv=0.120 model=1
new Load.trip_load_671_a_33 phases=1 bus1=trip_load_671_a_h_33.1.2 conn=w kw=0.100 kvar=0.000 numcust=1 kv=0.120 model=1
new Load.trip_load_680_c_17 phases=1 bus1=trip_load_680_c_h_17.1.2 conn=w kw=0.100 kvar=0.000 numcust=1 kv=0.120 model=1
new Load.trip_load_692_b_34 phases=1 bus1=trip_load_692_b_h_34.1.2 conn=w kw=0.100 kvar=0.000 numcust=1 kv=0.120 model=1
new Load.trip_load_671_a_34 phases=1 bus1=trip_load_671_a_h_34.1.2 conn=w kw=0.100 kvar=0.000 numcust=1 kv=0.120 model=1
new Load.trip_load_680_c_18 phases=1 bus1=trip_load_680_c_h_18.1.2 conn=w kw=0.100 kvar=0.000 numcust=1 kv=0.120 model=1
new Load.trip_load_692_b_33 phases=1 bus1=trip_load_692_b_h_33.1.2 conn=w kw=0.100 kvar=0.000 numcust=1 kv=0.120 model=1
new Load.trip_load_671_a_31 phases=1 bus1=trip_load_671_a_h_31.1.2 conn=w kw=0.100 kvar=0.000 numcust=1 kv=0.120 model=1
new Load.trip_load_680_c_19 phases=1 bus1=trip_load_680_c_h_19.1.2 conn=w kw=0.100 kvar=0.000 numcust=1 kv=0.120 model=1
new Load.trip_load_692_b_32 phases=1 bus1=trip_load_692_b_h_32.1.2 conn=w kw=0.100 kvar=0.000 numcust=1 kv=0.120 model=1
new Load.trip_load_671_a_32 phases=1 bus1=trip_load_671_a_h_32.1.2 conn=w kw=0.100 kvar=0.000 numcust=1 kv=0.120 model=1
new Load.trip_load_692_b_31 phases=1 bus1=trip_load_692_b_h_31.1.2 conn=w kw=0.100 kvar=0.000 numcust=1 kv=0.120 model=1
new Load.trip_load_692_b_30 phases=1 bus1=trip_load_692_b_h_30.1.2 conn=w kw=0.100 kvar=0.000 numcust=1 kv=0.120 model=1
new Load.trip_load_671_a_30 phases=1 bus1=trip_load_671_a_h_30.1.2 conn=w kw=0.100 kvar=0.000 numcust=1 kv=0.120 model=1
new Load.trip_load_680_c_10 phases=1 bus1=trip_load_680_c_h_10.1.2 conn=w kw=0.100 kvar=0.000 numcust=1 kv=0.120 model=1
new Load.trip_load_671_a_39 phases=1 bus1=trip_load_671_a_h_39.1.2 conn=w kw=0.100 kvar=0.000 numcust=1 kv=0.120 model=1
new Load.trip_load_680_c_11 phases=1 bus1=trip_load_680_c_h_11.1.2 conn=w kw=0.100 kvar=0.000 numcust=1 kv=0.120 model=1
new Load.trip_load_680_c_12 phases=1 bus1=trip_load_680_c_h_12.1.2 conn=w kw=0.100 kvar=0.000 numcust=1 kv=0.120 model=1
new Load.trip_load_692_b_39 phases=1 bus1=trip_load_692_b_h_39.1.2 conn=w kw=0.100 kvar=0.000 numcust=1 kv=0.120 model=1
new Load.trip_load_671_a_37 phases=1 bus1=trip_load_671_a_h_37.1.2 conn=w kw=0.100 kvar=0.000 numcust=1 kv=0.120 model=1
new Load.trip_load_680_c_13 phases=1 bus1=trip_load_680_c_h_13.1.2 conn=w kw=0.100 kvar=0.000 numcust=1 kv=0.120 model=1
new Load.trip_load_692_b_38 phases=1 bus1=trip_load_692_b_h_38.1.2 conn=w kw=0.100 kvar=0.000 numcust=1 kv=0.120 model=1
new Load.trip_load_671_a_38 phases=1 bus1=trip_load_671_a_h_38.1.2 conn=w kw=0.100 kvar=0.000 numcust=1 kv=0.120 model=1
new Load.trip_load_680_c_14 phases=1 bus1=trip_load_680_c_h_14.1.2 conn=w kw=0.100 kvar=0.000 numcust=1 kv=0.120 model=1
new Load.trip_load_692_b_37 phases=1 bus1=trip_load_692_b_h_37.1.2 conn=w kw=0.100 kvar=0.000 numcust=1 kv=0.120 model=1
...








new Line.ol_632_b_xfmr_632_b_2 phases=1 bus1=meter_632_b.2 bus2=xfmr_meter_632_b_2.2 length=50.001 linecode=1p_oh_code9 units=ft
~ normamps=400.00 emergamps=600.00
new Line.ol_632_b_xfmr_632_b_3 phases=1 bus1=meter_632_b.2 bus2=xfmr_meter_632_b_3.2 length=50.001 linecode=1p_oh_code9 units=ft
~ normamps=400.00 emergamps=600.00
new Line.ol_632_b_xfmr_632_b_4 phases=1 bus1=meter_632_b.2 bus2=xfmr_meter_632_b_4.2 length=50.001 linecode=1p_oh_code9 units=ft
~ normamps=400.00 emergamps=600.00
new Line.ol_632_b_xfmr_632_b_5 phases=1 bus1=meter_632_b.2 bus2=xfmr_meter_632_b_5.2 length=50.001 linecode=1p_oh_code9 units=ft
~ normamps=400.00 emergamps=600.00
new Line.ol_632_b_xfmr_632_b_1 phases=1 bus1=meter_632_b.2 bus2=xfmr_meter_632_b_1.2 length=50.001 linecode=1p_oh_code9 units=ft
~ normamps=400.00 emergamps=600.00
new Line.trip_line_645_b_h_5 phases=2 bus1=trip_node_645_b_1.1 bus2=trip_load_645_b_h_5.1 length=50.001 linecode=2p_code10 units=ft
~ normamps=400.00 emergamps=600.00
new Line.trip_line_645_b_h_6 phases=2 bus1=trip_node_645_b_1.1 bus2=trip_load_645_b_h_6.1 length=50.001 linecode=2p_code10 units=ft
~ normamps=400.00 emergamps=600.00
new Line.trip_line_645_b_h_7 phases=2 bus1=trip_node_645_b_1.1 bus2=trip_load_645_b_h_7.1 length=50.001 linecode=2p_code10 units=ft
~ normamps=400.00 emergamps=600.00
new Line.trip_line_645_b_h_8 phases=2 bus1=trip_node_645_b_1.1 bus2=trip_load_645_b_h_8.1 length=50.001 linecode=2p_code10 units=ft
~ normamps=400.00 emergamps=600.00
...